  6
         -8.22611843
 O         -0.6827172308       -0.0644369028       -0.0000003734
 C          0.7214761575        0.0131743039       -0.0000074285
 H         -1.0465643700        0.8269963687        0.0000141046
 H          1.0991004706        0.5249630425        0.8919271966
 H          1.0991197386        0.5255619173       -0.8915339156
 H          1.0880662911       -1.0116465213       -0.0003129350
  6
         -8.22356355
 O         -0.6858983031       -0.0647725406        0.0000028713
 C          0.7251575226        0.0132179600       -0.0000042183
 H         -1.0622035557        0.8181769363       -0.0000394933
 H          1.1107567510       -0.4920787642       -0.8896537016
 H          1.1107058665       -0.4969353099        0.8868519137
 H          1.0870890944        1.0415196152        0.0028459711
